1,7
 OpenBabel06222109303D

 14 13  0  0  0  0  0  0  0  0999 V2000
    2.5804    1.1350   -0.5239 O   0  0  0  0  0  0  0  0  0  0  0  0
    2.1888    0.0087   -0.2361 C   0  0  0  0  0  0  0  0  0  0  0  0
    0.7184   -0.3338   -0.2307 C   0  0  0  0  0  0  0  0  0  0  0  0
    3.1228   -1.0710    0.1154 C   0  5  0  0  0  0  0  0  0  0  0  0
    4.5898   -1.0409    0.2528 C   0  0  0  0  0  0  0  0  0  0  0  0
    5.4219    0.1765   -0.0344 C   0  0  0  0  0  0  0  0  0  0  0  0
    5.1330   -2.0888    0.6157 O   0  0  0  0  0  0  0  0  0  0  0  0
    0.1359    0.5681   -0.4421 H   0  0  0  0  0  0  0  0  0  0  0  0
    0.4210   -0.7090    0.7515 H   0  0  0  0  0  0  0  0  0  0  0  0
    0.5007   -1.0757   -1.0023 H   0  0  0  0  0  0  0  0  0  0  0  0
    2.6820   -2.0393    0.3221 H   0  0  0  0  0  0  0  0  0  0  0  0
    4.8481    1.0643   -0.2922 H   0  0  0  0  0  0  0  0  0  0  0  0
    6.0979   -0.0476   -0.8676 H   0  0  0  0  0  0  0  0  0  0  0  0
    6.0184    0.4109    0.8542 H   0  0  0  0  0  0  0  0  0  0  0  0
  1  2  2  0  0  0  0
  2  3  1  0  0  0  0
  2  4  1  0  0  0  0
  3  8  1  0  0  0  0
  3  9  1  0  0  0  0
  3 10  1  0  0  0  0
  4  5  1  0  0  0  0
  4 11  1  0  0  0  0
  5  6  1  0  0  0  0
  5  7  2  0  0  0  0
  6 12  1  0  0  0  0
  6 13  1  0  0  0  0
  6 14  1  0  0  0  0
M  CHG  1   4  -1
M  END
