3,4
 OpenBabel06222109303D

  4  3  0  0  0  0  0  0  0  0999 V2000
    1.1274    0.0626    0.0279 O   0  0  0  0  0  0  0  0  0  0  0  0
    2.3487    0.0626    0.0279 C   0  0  0  0  0  0  0  0  0  0  0  0
    3.0613    0.8043   -0.6582 O   0  5  0  0  0  0  0  0  0  0  0  0
    3.0613   -0.6792    0.7140 O   0  5  0  0  0  0  0  0  0  0  0  0
  1  2  2  0  0  0  0
  2  3  1  0  0  0  0
  2  4  1  0  0  0  0
M  CHG  2   3  -1   4  -1
M  END
