2,5
 OpenBabel06222109303D

 16 15  0  0  0  0  0  0  0  0999 V2000
    1.0031   -0.0694    0.0690 C   0  0  0  0  0  0  0  0  0  0  0  0
    2.4245   -0.0523    0.0575 O   0  0  0  0  0  0  0  0  0  0  0  0
    2.9247    0.9788   -0.7935 C   0  0  0  0  0  0  0  0  0  0  0  0
    4.4481    0.9559   -0.7743 C   0  0  0  0  0  0  0  0  0  0  0  0
    4.9483    1.9858   -1.6268 O   0  0  0  0  0  0  0  0  0  0  0  0
    6.3697    2.0017   -1.6398 C   0  0  0  0  0  0  0  0  0  0  0  0
    0.6742   -0.8731    0.7326 H   0  0  0  0  0  0  0  0  0  0  0  0
    0.6146   -0.2637   -0.9352 H   0  0  0  0  0  0  0  0  0  0  0  0
    0.6120    0.8795    0.4483 H   0  0  0  0  0  0  0  0  0  0  0  0
    2.5636    1.9564   -0.4520 H   0  0  0  0  0  0  0  0  0  0  0  0
    2.5639    0.8286   -1.8182 H   0  0  0  0  0  0  0  0  0  0  0  0
    4.8092   -0.0222   -1.1145 H   0  0  0  0  0  0  0  0  0  0  0  0
    4.8090    1.1075    0.2501 H   0  0  0  0  0  0  0  0  0  0  0  0
    6.6986    2.8046   -2.3044 H   0  0  0  0  0  0  0  0  0  0  0  0
    6.7596    1.0522   -2.0186 H   0  0  0  0  0  0  0  0  0  0  0  0
    6.7594    2.1965   -0.6362 H   0  0  0  0  0  0  0  0  0  0  0  0
  1  2  1  0  0  0  0
  1  7  1  0  0  0  0
  1  8  1  0  0  0  0
  1  9  1  0  0  0  0
  2  3  1  0  0  0  0
  3  4  1  0  0  0  0
  3 10  1  0  0  0  0
  3 11  1  0  0  0  0
  4  5  1  0  0  0  0
  4 12  1  0  0  0  0
  4 13  1  0  0  0  0
  5  6  1  0  0  0  0
  6 14  1  0  0  0  0
  6 15  1  0  0  0  0
  6 16  1  0  0  0  0
M  END
