3,8
 OpenBabel03012116033D

 20 21  0  0  0  0  0  0  0  0999 V2000
   -0.5872   -1.1992    0.0232 C   0  0  0  0  0  0  0  0  0  0  0  0
   -1.3238   -2.4862    0.0895 C   0  0  0  0  0  0  0  0  0  0  0  0
   -0.5747   -3.6255    0.0675 N   0  0  0  0  0  0  0  0  0  0  0  0
   -1.2202   -4.8098    0.1588 C   0  0  0  0  0  0  0  0  0  0  0  0
   -2.5919   -4.9345    0.2756 C   0  0  0  0  0  0  0  0  0  0  0  0
   -3.3538   -3.7749    0.2906 C   0  0  0  0  0  0  0  0  0  0  0  0
   -2.7157   -2.5396    0.1940 C   0  0  0  0  0  0  0  0  0  0  0  0
   -1.3375   -0.0605    0.0227 N   0  0  0  0  0  0  0  0  0  0  0  0
   -0.6896    1.1253   -0.0052 C   0  0  0  0  0  0  0  0  0  0  0  0
    0.6872    1.2525   -0.0310 C   0  0  0  0  0  0  0  0  0  0  0  0
    1.4490    0.0934   -0.0372 C   0  0  0  0  0  0  0  0  0  0  0  0
    0.8081   -1.1439   -0.0131 C   0  0  0  0  0  0  0  0  0  0  0  0
   -0.5792   -5.6868    0.1388 H   0  0  0  0  0  0  0  0  0  0  0  0
   -3.0562   -5.9117    0.3523 H   0  0  0  0  0  0  0  0  0  0  0  0
   -4.4342   -3.8252    0.3815 H   0  0  0  0  0  0  0  0  0  0  0  0
   -3.3020   -1.6255    0.2098 H   0  0  0  0  0  0  0  0  0  0  0  0
   -1.3313    2.0018   -0.0021 H   0  0  0  0  0  0  0  0  0  0  0  0
    1.1541    2.2309   -0.0446 H   0  0  0  0  0  0  0  0  0  0  0  0
    2.5339    0.1452   -0.0559 H   0  0  0  0  0  0  0  0  0  0  0  0
    1.3955   -2.0580   -0.0126 H   0  0  0  0  0  0  0  0  0  0  0  0
  1  2  1  0  0  0  0
  1  8  2  0  0  0  0
  1 12  1  0  0  0  0
  2  3  2  0  0  0  0
  2  7  1  0  0  0  0
  3  4  1  0  0  0  0
  4  5  2  0  0  0  0
  4 13  1  0  0  0  0
  5  6  1  0  0  0  0
  5 14  1  0  0  0  0
  6  7  2  0  0  0  0
  6 15  1  0  0  0  0
  7 16  1  0  0  0  0
  8  9  1  0  0  0  0
  9 10  2  0  0  0  0
  9 17  1  0  0  0  0
 10 11  1  0  0  0  0
 10 18  1  0  0  0  0
 11 12  2  0  0  0  0
 11 19  1  0  0  0  0
 12 20  1  0  0  0  0
M  END
