1
 OpenBabel02192113383D

  4  3  0  0  0  0  0  0  0  0999 V2000
    1.0640   -0.1057   -0.1492 C   0  5  0  0  0  0  0  0  0  0  0  0
    2.0846    0.1967    0.0478 H   0  0  0  0  0  0  0  0  0  0  0  0
    0.5537   -0.7684    0.5381 H   0  0  0  0  0  0  0  0  0  0  0  0
    0.5536    0.2546   -1.0333 H   0  0  0  0  0  0  0  0  0  0  0  0
  1  2  1  0  0  0  0
  1  3  1  0  0  0  0
  1  4  1  0  0  0  0
M  CHG  1   1  -1
M  END
