1
 OpenBabel02192113383D

  6  5  0  0  0  0  0  0  0  0999 V2000
    1.0215   -0.0858    0.0466 N   0  0  0  0  0  0  0  0  0  0  0  0
    2.2825   -0.0858    0.0466 C   0  0  0  0  0  0  0  0  0  0  0  0
    3.8025   -0.0858    0.0466 C   0  0  0  0  0  0  0  0  0  0  0  0
    4.1753   -1.0963    0.2354 H   0  0  0  0  0  0  0  0  0  0  0  0
    4.1753    0.5829    0.8273 H   0  0  0  0  0  0  0  0  0  0  0  0
    4.1753    0.2559   -0.9229 H   0  0  0  0  0  0  0  0  0  0  0  0
  1  2  3  0  0  0  0
  2  3  1  0  0  0  0
  3  4  1  0  0  0  0
  3  5  1  0  0  0  0
  3  6  1  0  0  0  0
M  END
