1
 OpenBabel02192113383D

 15 15  0  0  0  0  0  0  0  0999 V2000
   -1.1175    0.0181   -0.1336 C   0  0  0  0  0  2  0  0  0  0  0  0
   -0.3430   -1.2052   -0.2307 N   0  0  0  0  0  0  0  0  0  0  0  0
   -0.7697   -2.3872    0.4815 C   0  0  0  0  0  0  0  0  0  0  0  0
    0.9492   -0.6810   -0.1456 C   0  0  0  0  0  0  0  0  0  0  0  0
    0.9652    0.6675   -0.1130 C   0  0  0  0  0  0  0  0  0  0  0  0
   -0.3118    1.2224   -0.1890 N   0  0  0  0  0  0  0  0  0  0  0  0
   -0.7402    2.4098    0.5082 C   0  0  0  0  0  0  0  0  0  0  0  0
   -1.8549   -2.5177    0.4128 H   0  0  0  0  0  0  0  0  0  0  0  0
   -0.4915   -2.3408    1.5398 H   0  0  0  0  0  0  0  0  0  0  0  0
   -0.3015   -3.2742    0.0418 H   0  0  0  0  0  0  0  0  0  0  0  0
    1.7905   -1.3525   -0.0491 H   0  0  0  0  0  0  0  0  0  0  0  0
    1.8203    1.3137    0.0111 H   0  0  0  0  0  0  0  0  0  0  0  0
    0.0592    3.1591    0.5327 H   0  0  0  0  0  0  0  0  0  0  0  0
   -1.0360    2.1913    1.5401 H   0  0  0  0  0  0  0  0  0  0  0  0
   -1.5940    2.8594   -0.0097 H   0  0  0  0  0  0  0  0  0  0  0  0
  1  2  1  0  0  0  0
  1  6  1  0  0  0  0
  2  3  1  0  0  0  0
  2  4  1  0  0  0  0
  3  8  1  0  0  0  0
  3  9  1  0  0  0  0
  3 10  1  0  0  0  0
  4  5  2  0  0  0  0
  4 11  1  0  0  0  0
  5  6  1  0  0  0  0
  5 12  1  0  0  0  0
  6  7  1  0  0  0  0
  7 13  1  0  0  0  0
  7 14  1  0  0  0  0
  7 15  1  0  0  0  0
M  END
