7,13,18
 OpenBabel03012116033D

 29 31  0  0  0  0  0  0  0  0999 V2000
   -0.3935    0.9977   -1.1268 C   0  0  0  0  0  0  0  0  0  0  0  0
   -1.0353    1.9062   -0.0710 C   0  0  0  0  0  0  0  0  0  0  0  0
   -1.8107    1.1729    0.8322 C   0  0  0  0  0  0  0  0  0  0  0  0
   -1.1275    0.7391    1.9641 C   0  0  0  0  0  0  0  0  0  0  0  0
    0.0488    1.3834    2.3291 C   0  0  0  0  0  0  0  0  0  0  0  0
    0.4083    2.5066    1.6044 C   0  0  0  0  0  0  0  0  0  0  0  0
   -0.1691    2.8292    0.4267 N   0  0  0  0  0  0  0  0  0  0  0  0
    1.0006    1.0717   -1.2691 C   0  0  0  0  0  0  0  0  0  0  0  0
    1.7287   -0.1109   -1.1613 C   0  0  0  0  0  0  0  0  0  0  0  0
    1.0540   -1.3167   -1.0164 C   0  0  0  0  0  0  0  0  0  0  0  0
   -0.3417   -1.3345   -1.0866 C   0  0  0  0  0  0  0  0  0  0  0  0
   -1.1294   -2.5459   -0.7345 C   0  0  0  0  0  0  0  0  0  0  0  0
   -0.4218   -3.6422   -0.3418 N   0  0  0  0  0  0  0  0  0  0  0  0
   -1.1082   -4.7169    0.1094 C   0  0  0  0  0  0  0  0  0  0  0  0
   -2.4876   -4.7733    0.1817 C   0  0  0  0  0  0  0  0  0  0  0  0
   -3.2137   -3.6551   -0.2160 C   0  0  0  0  0  0  0  0  0  0  0  0
   -2.5267   -2.5386   -0.6832 C   0  0  0  0  0  0  0  0  0  0  0  0
   -1.0606   -0.1918   -1.2624 N   0  0  0  0  0  0  0  0  0  0  0  0
   -2.6515    0.5828    0.4739 H   0  0  0  0  0  0  0  0  0  0  0  0
   -1.4524   -0.1633    2.4760 H   0  0  0  0  0  0  0  0  0  0  0  0
    0.6694    1.0116    3.1332 H   0  0  0  0  0  0  0  0  0  0  0  0
    1.2449    3.1317    1.9008 H   0  0  0  0  0  0  0  0  0  0  0  0
    1.5201    2.0187   -1.1570 H   0  0  0  0  0  0  0  0  0  0  0  0
    2.8078   -0.0712   -1.0366 H   0  0  0  0  0  0  0  0  0  0  0  0
    1.6046   -2.2210   -0.7779 H   0  0  0  0  0  0  0  0  0  0  0  0
   -0.4892   -5.5499    0.4257 H   0  0  0  0  0  0  0  0  0  0  0  0
   -2.9851   -5.6556    0.5743 H   0  0  0  0  0  0  0  0  0  0  0  0
   -4.2926   -3.6552   -0.1663 H   0  0  0  0  0  0  0  0  0  0  0  0
   -3.0865   -1.6499   -0.9821 H   0  0  0  0  0  0  0  0  0  0  0  0
  1  2  1  0  0  0  0
  1  8  2  0  0  0  0
  1 18  1  0  0  0  0
  2  3  2  0  0  0  0
  2  7  1  0  0  0  0
  3  4  1  0  0  0  0
  3 19  1  0  0  0  0
  4  5  2  0  0  0  0
  4 20  1  0  0  0  0
  5  6  1  0  0  0  0
  5 21  1  0  0  0  0
  6  7  2  0  0  0  0
  6 22  1  0  0  0  0
  8  9  1  0  0  0  0
  8 23  1  0  0  0  0
  9 10  2  0  0  0  0
  9 24  1  0  0  0  0
 10 11  1  0  0  0  0
 10 25  1  0  0  0  0
 11 12  1  0  0  0  0
 11 18  2  0  0  0  0
 12 13  2  0  0  0  0
 12 17  1  0  0  0  0
 13 14  1  0  0  0  0
 14 15  2  0  0  0  0
 14 26  1  0  0  0  0
 15 16  1  0  0  0  0
 15 27  1  0  0  0  0
 16 17  2  0  0  0  0
 16 28  1  0  0  0  0
 17 29  1  0  0  0  0
M  END
